pgym/pf_cases/case141.py
# CASE141, distribution
from numpy import array

def case():

    ## PYPOWER Case Format : Version 2
    ppc = {"version": "2"}

    ##-----  Power Flow Data  -----##
    ## system MVA base
    ppc["baseMVA"] = 5

    ## bus data
    # bus_i, type, Pd, Qd, Gs, Bs, area, Vm, Va, baseKV, zone, Vmax, Vmin
    ppc["bus"] = array([
        [1, 3, 0, 0, 0, 0, 1, 1, 0, 12.5, 1, 1.1, 0.9],
        [2, 1, 0, 0, 0, 0, 1, 1, 0, 12.5, 1, 1.1, 0.9],
        [3, 1, 0, 0, 0, 0, 1, 1, 0, 12.5, 1, 1.1, 0.9],
        [4, 1, 0, 0, 0, 0, 1, 1, 0, 12.5, 1, 1.1, 0.9],
        [5, 1, 0, 0, 0, 0, 1, 1, 0, 12.5, 1, 1.1, 0.9],
        [6, 1, 0, 0, 0, 0, 1, 1, 0, 12.5, 1, 1.1, 0.9],
        [7, 1, 0, 0, 0, 0, 1, 1, 0, 12.5, 1, 1.1, 0.9],
        [8, 1, 0.0638, 0.0395, 0, 0, 1, 1, 0, 12.5, 1, 1.1, 0.9],
        [9, 1, 0.0085, 0.0053, 0, 0, 1, 1, 0, 12.5, 1, 1.1, 0.9],
        [10, 1, 0, 0, 0, 0, 1, 1, 0, 12.5, 1, 1.1, 0.9],
        [11, 1, 0, 0, 0, 0, 1, 1, 0, 12.5, 1, 1.1, 0.9],
        [12, 1, 0.0213, 0.0132, 0, 0, 1, 1, 0, 12.5, 1, 1.1, 0.9],
        [13, 1, 0.0638, 0.0395, 0, 0, 1, 1, 0, 12.5, 1, 1.1, 0.9],
        [14, 1, 0, 0, 0, 0, 1, 1, 0, 12.5, 1, 1.1, 0.9],
        [15, 1, 0, 0, 0, 0, 1, 1, 0, 12.5, 1, 1.1, 0.9],
        [16, 1, 0, 0, 0, 0, 1, 1, 0, 12.5, 1, 1.1, 0.9],
        [17, 1, 0.1275, 0.079, 0, 0, 1, 1, 0, 12.5, 1, 1.1, 0.9],
        [18, 1, 0, 0, 0, 0, 1, 1, 0, 12.5, 1, 1.1, 0.9],
        [19, 1, 0, 0, 0, 0, 1, 1, 0, 12.5, 1, 1.1, 0.9],
        [20, 1, 0.0638, 0.0395, 0, 0, 1, 1, 0, 12.5, 1, 1.1, 0.9],
        [21, 1, 0.0638, 0.0395, 0, 0, 1, 1, 0, 12.5, 1, 1.1, 0.9],
        [22, 1, 0, 0, 0, 0, 1, 1, 0, 12.5, 1, 1.1, 0.9],
        [23, 1, 0.0638, 0.0395, 0, 0, 1, 1, 0, 12.5, 1, 1.1, 0.9],
        [24, 1, 0, 0, 0, 0, 1, 1, 0, 12.5, 1, 1.1, 0.9],
        [25, 1, 0, 0, 0, 0, 1, 1, 0, 12.5, 1, 1.1, 0.9],
        [26, 1, 0.1275, 0.079, 0, 0, 1, 1, 0, 12.5, 1, 1.1, 0.9],
        [27, 1, 0.0638, 0.0395, 0, 0, 1, 1, 0, 12.5, 1, 1.1, 0.9],
        [28, 1, 0, 0, 0, 0, 1, 1, 0, 12.5, 1, 1.1, 0.9],
        [29, 1, 0.0638, 0.0395, 0, 0, 1, 1, 0, 12.5, 1, 1.1, 0.9],
        [30, 1, 0, 0, 0, 0, 1, 1, 0, 12.5, 1, 1.1, 0.9],
        [31, 1, 0, 0, 0, 0, 1, 1, 0, 12.5, 1, 1.1, 0.9],
        [32, 1, 0.1275, 0.079, 0, 0, 1, 1, 0, 12.5, 1, 1.1, 0.9],
        [33, 1, 0, 0, 0, 0, 1, 1, 0, 12.5, 1, 1.1, 0.9],
        [34, 1, 0.1275, 0.079, 0, 0, 1, 1, 0, 12.5, 1, 1.1, 0.9],
        [35, 1, 0.255, 0.158, 0, 0, 1, 1, 0, 12.5, 1, 1.1, 0.9],
        [36, 1, 0.1275, 0.079, 0, 0, 1, 1, 0, 12.5, 1, 1.1, 0.9],
        [37, 1, 0.0425, 0.0263, 0, 0, 1, 1, 0, 12.5, 1, 1.1, 0.9],
        [38, 1, 0, 0, 0, 0, 1, 1, 0, 12.5, 1, 1.1, 0.9],
        [39, 1, 0.017, 0.0105, 0, 0, 1, 1, 0, 12.5, 1, 1.1, 0.9],
        [40, 1, 0, 0, 0, 0, 1, 1, 0, 12.5, 1, 1.1, 0.9],
        [41, 1, 0.0638, 0.0395, 0, 0, 1, 1, 0, 12.5, 1, 1.1, 0.9],
        [42, 1, 0, 0, 0, 0, 1, 1, 0, 12.5, 1, 1.1, 0.9],
        [43, 1, 0, 0, 0, 0, 1, 1, 0, 12.5, 1, 1.1, 0.9],
        [44, 1, 0.0425, 0.0263, 0, 0, 1, 1, 0, 12.5, 1, 1.1, 0.9],
        [45, 1, 0, 0, 0, 0, 1, 1, 0, 12.5, 1, 1.1, 0.9],
        [46, 1, 0, 0, 0, 0, 1, 1, 0, 12.5, 1, 1.1, 0.9],
        [47, 1, 0, 0, 0, 0, 1, 1, 0, 12.5, 1, 1.1, 0.9],
        [48, 1, 0.1062, 0.0658, 0, 0, 1, 1, 0, 12.5, 1, 1.1, 0.9],
        [49, 1, 0.1275, 0.079, 0, 0, 1, 1, 0, 12.5, 1, 1.1, 0.9],
        [50, 1, 0, 0, 0, 0, 1, 1, 0, 12.5, 1, 1.1, 0.9],
        [51, 1, 0.1062, 0.0658, 0, 0, 1, 1, 0, 12.5, 1, 1.1, 0.9],
        [52, 1, 0.0638, 0.0395, 0, 0, 1, 1, 0, 12.5, 1, 1.1, 0.9],
        [53, 1, 0.0425, 0.0263, 0, 0, 1, 1, 0, 12.5, 1, 1.1, 0.9],
        [54, 1, 0, 0, 0, 0, 1, 1, 0, 12.5, 1, 1.1, 0.9],
        [55, 1, 0, 0, 0, 0, 1, 1, 0, 12.5, 1, 1.1, 0.9],
        [56, 1, 0.0213, 0.0132, 0, 0, 1, 1, 0, 12.5, 1, 1.1, 0.9],
        [57, 1, 0, 0, 0, 0, 1, 1, 0, 12.5, 1, 1.1, 0.9],
        [58, 1, 0.255, 0.158, 0, 0, 1, 1, 0, 12.5, 1, 1.1, 0.9],
        [59, 1, 0.1275, 0.079, 0, 0, 1, 1, 0, 12.5, 1, 1.1, 0.9],
        [60, 1, 0, 0, 0, 0, 1, 1, 0, 12.5, 1, 1.1, 0.9],
        [61, 1, 0.255, 0.158, 0, 0, 1, 1, 0, 12.5, 1, 1.1, 0.9],
        [62, 1, 0.17, 0.1054, 0, 0, 1, 1, 0, 12.5, 1, 1.1, 0.9],
        [63, 1, 0, 0, 0, 0, 1, 1, 0, 12.5, 1, 1.1, 0.9],
        [64, 1, 0.255, 0.158, 0, 0, 1, 1, 0, 12.5, 1, 1.1, 0.9],
        [65, 1, 0.1275, 0.079, 0, 0, 1, 1, 0, 12.5, 1, 1.1, 0.9],
        [66, 1, 0.1913, 0.1185, 0, 0, 1, 1, 0, 12.5, 1, 1.1, 0.9],
        [67, 1, 0.0425, 0.0263, 0, 0, 1, 1, 0, 12.5, 1, 1.1, 0.9],
        [68, 1, 0.085, 0.0527, 0, 0, 1, 1, 0, 12.5, 1, 1.1, 0.9],
        [69, 1, 0.255, 0.158, 0, 0, 1, 1, 0, 12.5, 1, 1.1, 0.9],
        [70, 1, 0, 0, 0, 0, 1, 1, 0, 12.5, 1, 1.1, 0.9],
        [71, 1, 0.255, 0.158, 0, 0, 1, 1, 0, 12.5, 1, 1.1, 0.9],
        [72, 1, 0.1275, 0.079, 0, 0, 1, 1, 0, 12.5, 1, 1.1, 0.9],
        [73, 1, 0.255, 0.158, 0, 0, 1, 1, 0, 12.5, 1, 1.1, 0.9],
        [74, 1, 0.255, 0.158, 0, 0, 1, 1, 0, 12.5, 1, 1.1, 0.9],
        [75, 1, 0.0382, 0.0237, 0, 0, 1, 1, 0, 12.5, 1, 1.1, 0.9],
        [76, 1, 0.0638, 0.0395, 0, 0, 1, 1, 0, 12.5, 1, 1.1, 0.9],
        [77, 1, 0.1275, 0.079, 0, 0, 1, 1, 0, 12.5, 1, 1.1, 0.9],
        [78, 1, 0, 0, 0, 0, 1, 1, 0, 12.5, 1, 1.1, 0.9],
        [79, 1, 0.4271, 0.2647, 0, 0, 1, 1, 0, 12.5, 1, 1.1, 0.9],
        [80, 1, 0.6375, 0.3951, 0, 0, 1, 1, 0, 12.5, 1, 1.1, 0.9],
        [81, 1, 0, 0, 0, 0, 1, 1, 0, 12.5, 1, 1.1, 0.9],
        [82, 1, 0.1275, 0.079, 0, 0, 1, 1, 0, 12.5, 1, 1.1, 0.9],
        [83, 1, 0.0638, 0.0395, 0, 0, 1, 1, 0, 12.5, 1, 1.1, 0.9],
        [84, 1, 0.1913, 0.1185, 0, 0, 1, 1, 0, 12.5, 1, 1.1, 0.9],
        [85, 1, 0, 0, 0, 0, 1, 1, 0, 12.5, 1, 1.1, 0.9],
        [86, 1, 0.425, 0.2634, 0, 0, 1, 1, 0, 12.5, 1, 1.1, 0.9],
        [87, 1, 0.1275, 0.079, 0, 0, 1, 1, 0, 12.5, 1, 1.1, 0.9],
        [88, 1, 0.0638, 0.0395, 0, 0, 1, 1, 0, 12.5, 1, 1.1, 0.9],
        [89, 1, 0.0553, 0.0342, 0, 0, 1, 1, 0, 12.5, 1, 1.1, 0.9],
        [90, 1, 0, 0, 0, 0, 1, 1, 0, 12.5, 1, 1.1, 0.9],
        [91, 1, 0, 0, 0, 0, 1, 1, 0, 12.5, 1, 1.1, 0.9],
        [92, 1, 0, 0, 0, 0, 1, 1, 0, 12.5, 1, 1.1, 0.9],
        [93, 1, 0, 0, 0, 0, 1, 1, 0, 12.5, 1, 1.1, 0.9],
        [94, 1, 0.0935, 0.0579, 0, 0, 1, 1, 0, 12.5, 1, 1.1, 0.9],
        [95, 1, 0, 0, 0, 0, 1, 1, 0, 12.5, 1, 1.1, 0.9],
        [96, 1, 0.1275, 0.079, 0, 0, 1, 1, 0, 12.5, 1, 1.1, 0.9],
        [97, 1, 0, 0, 0, 0, 1, 1, 0, 12.5, 1, 1.1, 0.9],
        [98, 1, 0.255, 0.158, 0, 0, 1, 1, 0, 12.5, 1, 1.1, 0.9],
        [99, 1, 0, 0, 0, 0, 1, 1, 0, 12.5, 1, 1.1, 0.9],
        [100, 1, 0.255, 0.158, 0, 0, 1, 1, 0, 12.5, 1, 1.1, 0.9],
        [101, 1, 0.0127, 0.0079, 0, 0, 1, 1, 0, 12.5, 1, 1.1, 0.9],
        [102, 1, 0, 0, 0, 0, 1, 1, 0, 12.5, 1, 1.1, 0.9],
        [103, 1, 0.1062, 0.0658, 0, 0, 1, 1, 0, 12.5, 1, 1.1, 0.9],
        [104, 1, 0, 0, 0, 0, 1, 1, 0, 12.5, 1, 1.1, 0.9],
        [105, 1, 0.255, 0.158, 0, 0, 1, 1, 0, 12.5, 1, 1.1, 0.9],
        [106, 1, 0.1275, 0.079, 0, 0, 1, 1, 0, 12.5, 1, 1.1, 0.9],
        [107, 1, 0.4271, 0.2647, 0, 0, 1, 1, 0, 12.5, 1, 1.1, 0.9],
        [108, 1, 0, 0, 0, 0, 1, 1, 0, 12.5, 1, 1.1, 0.9],
        [109, 1, 0.6375, 0.3951, 0, 0, 1, 1, 0, 12.5, 1, 1.1, 0.9],
        [110, 1, 0.6375, 0.3951, 0, 0, 1, 1, 0, 12.5, 1, 1.1, 0.9],
        [111, 1, 0.0213, 0.0132, 0, 0, 1, 1, 0, 12.5, 1, 1.1, 0.9],
        [112, 1, 0.425, 0.2634, 0, 0, 1, 1, 0, 12.5, 1, 1.1, 0.9],
        [113, 1, 0.0638, 0.0395, 0, 0, 1, 1, 0, 12.5, 1, 1.1, 0.9],
        [114, 1, 0, 0, 0, 0, 1, 1, 0, 12.5, 1, 1.1, 0.9],
        [115, 1, 0, 0, 0, 0, 1, 1, 0, 12.5, 1, 1.1, 0.9],
        [116, 1, 0.255, 0.158, 0, 0, 1, 1, 0, 12.5, 1, 1.1, 0.9],
        [117, 1, 0.0553, 0.0342, 0, 0, 1, 1, 0, 12.5, 1, 1.1, 0.9],
        [118, 1, 0, 0, 0, 0, 1, 1, 0, 12.5, 1, 1.1, 0.9],
        [119, 1, 0.0935, 0.0579, 0, 0, 1, 1, 0, 12.5, 1, 1.1, 0.9],
        [120, 1, 0, 0, 0, 0, 1, 1, 0, 12.5, 1, 1.1, 0.9],
        [121, 1, 0, 0, 0, 0, 1, 1, 0, 12.5, 1, 1.1, 0.9],
        [122, 1, 0, 0, 0, 0, 1, 1, 0, 12.5, 1, 1.1, 0.9],
        [123, 1, 0.085, 0.0527, 0, 0, 1, 1, 0, 12.5, 1, 1.1, 0.9],
        [124, 1, 0.1062, 0.0658, 0, 0, 1, 1, 0, 12.5, 1, 1.1, 0.9],
        [125, 1, 0, 0, 0, 0, 1, 1, 0, 12.5, 1, 1.1, 0.9],
        [126, 1, 0, 0, 0, 0, 1, 1, 0, 12.5, 1, 1.1, 0.9],
        [127, 1, 0.0638, 0.0395, 0, 0, 1, 1, 0, 12.5, 1, 1.1, 0.9],
        [128, 1, 0.0638, 0.0395, 0, 0, 1, 1, 0, 12.5, 1, 1.1, 0.9],
        [129, 1, 0.0935, 0.0579, 0, 0, 1, 1, 0, 12.5, 1, 1.1, 0.9],
        [130, 1, 0.0956, 0.0593, 0, 0, 1, 1, 0, 12.5, 1, 1.1, 0.9],
        [131, 1, 0, 0, 0, 0, 1, 1, 0, 12.5, 1, 1.1, 0.9],
        [132, 1, 0.0638, 0.0395, 0, 0, 1, 1, 0, 12.5, 1, 1.1, 0.9],
        [133, 1, 0.0382, 0.0237, 0, 0, 1, 1, 0, 12.5, 1, 1.1, 0.9],
        [134, 1, 0.0297, 0.0184, 0, 0, 1, 1, 0, 12.5, 1, 1.1, 0.9],
        [135, 1, 0.0213, 0.0132, 0, 0, 1, 1, 0, 12.5, 1, 1.1, 0.9],
        [136, 1, 0.0638, 0.0395, 0, 0, 1, 1, 0, 12.5, 1, 1.1, 0.9],
        [137, 1, 0.0467, 0.029, 0, 0, 1, 1, 0, 12.5, 1, 1.1, 0.9],
        [138, 1, 0.0425, 0.0263, 0, 0, 1, 1, 0, 12.5, 1, 1.1, 0.9],
        [139, 1, 0.0425, 0.0263, 0, 0, 1, 1, 0, 12.5, 1, 1.1, 0.9],
        [140, 1, 0.1275, 0.079, 0, 0, 1, 1, 0, 12.5, 1, 1.1, 0.9],
        [141, 1, 0.0638, 0.0395, 0, 0, 1, 1, 0, 12.5, 1, 1.1, 0.9],
    ])

    ## generator data
    # bus, Pg, Qg, Qmax, Qmin, Vg, mBase, status, Pmax, Pmin, Pc1, Pc2, Qc1min, Qc1max, Qc2min, Qc2max, ramp_agc, ramp_10, ramp_30, ramp_q, apf
    ppc["gen"] = array([
        [1, 0, 0, 999, -999, 1, 100, 1, 999, 0, 0, 0, 0, 0, 0, 0, 0, 0, 0, 0, 0],
    ])

    ## branch data
    # fbus, tbus, r, x, b, rateA, rateB, rateC, ratio, angle, status, angmin, angmax
    ppc["branch"] = array([
        [1, 2, 0.00371059, 0.00263021, 0, 999, 999, 999, 0, 0, 1, -360, 360],
        [2, 3, 0.01109318, 0.00786491, 0, 999, 999, 999, 0, 0, 1, -360, 360],
        [3, 4, 5.788e-05, 3.858e-05, 0, 999, 999, 999, 0, 0, 1, -360, 360],
        [4, 5, 0.00059164, 0.000418, 0, 999, 999, 999, 0, 0, 1, -360, 360],
        [5, 6, 0.0004373, 0.00031511, 0, 999, 999, 999, 0, 0, 1, -360, 360],
        [6, 7, 0.00301606, 0.00401927, 0, 999, 999, 999, 0, 0, 1, -360, 360],
        [7, 8, 0.00473309, 0.00630865, 0, 999, 999, 999, 0, 0, 1, -360, 360],
        [8, 9, 0.00417361, 0.00295175, 0, 999, 999, 999, 0, 0, 1, -360, 360],
        [9, 10, 0.00326043, 0.00230867, 0, 999, 999, 999, 0, 0, 1, -360, 360],
        [10, 11, 0.00074598, 0.00052733, 0, 999, 999, 999, 0, 0, 1, -360, 360],
        [11, 12, 0.0083022, 0.00587135, 0, 999, 999, 999, 0, 0, 1, -360, 360],
        [12, 13, 0.00789063, 0.0055691, 0, 999, 999, 999, 0, 0, 1, -360, 360],
        [13, 14, 0.00313825, 0.00221864, 0, 999, 999, 999, 0, 0, 1, -360, 360],
        [14, 15, 0.00615431, 0.00435367, 0, 999, 999, 999, 0, 0, 1, -360, 360],
        [15, 16, 0.00553051, 0.00391638, 0, 999, 999, 999, 0, 0, 1, -360, 360],
        [16, 17, 0.00255947, 0.00181349, 0, 999, 999, 999, 0, 0, 1, -360, 360],
        [17, 18, 0.00532473, 0.00363985, 0, 999, 999, 999, 0, 0, 1, -360, 360],
        [18, 19, 0.00119613, 0.00084887, 0, 999, 999, 999, 0, 0, 1, -360, 360],
        [19, 20, 0.00359483, 0.00254018, 0, 999, 999, 999, 0, 0, 1, -360, 360],
        [20, 21, 0.00234725, 0.00158198, 0, 999, 999, 999, 0, 0, 1, -360, 360],
        [21, 22, 0.00368487, 0.00197427, 0, 999, 999, 999, 0, 0, 1, -360, 360],
        [22, 23, 0.00169131, 0.00122829, 0, 999, 999, 999, 0, 0, 1, -360, 360],
        [23, 24, 0.00439226, 0.00319612, 0, 999, 999, 999, 0, 0, 1, -360, 360],
        [24, 25, 0.00255947, 0.00181349, 0, 999, 999, 999, 0, 0, 1, -360, 360],
        [25, 26, 0.00468808, 0.00340834, 0, 999, 999, 999, 0, 0, 1, -360, 360],
        [26, 27, 0.00215433, 0.00156912, 0, 999, 999, 999, 0, 0, 1, -360, 360],
        [27, 28, 0.00375561, 0.00266236, 0, 999, 999, 999, 0, 0, 1, -360, 360],
        [28, 29, 0.00421219, 0.00297747, 0, 999, 999, 999, 0, 0, 1, -360, 360],
        [29, 30, 0.00219934, 0.00159485, 0, 999, 999, 999, 0, 0, 1, -360, 360],
        [30, 31, 0.00082315, 0.00058521, 0, 999, 999, 999, 0, 0, 1, -360, 360],
        [31, 32, 0.0022315, 0.00157555, 0, 999, 999, 999, 0, 0, 1, -360, 360],
        [2, 33, 0.00284886, 0.00201928, 0, 999, 999, 999, 0, 0, 1, -360, 360],
        [33, 34, 0.00012862, 5.788e-05, 0, 999, 999, 999, 0, 0, 1, -360, 360],
        [5, 35, 0.01462371, 0.00356268, 0, 999, 999, 999, 0, 0, 1, -360, 360],
        [5, 36, 0.008135, 0.01006425, 0, 999, 999, 999, 0, 0, 1, -360, 360],
        [6, 37, 0.0003537, 0.00046945, 0, 999, 999, 999, 0, 0, 1, -360, 360],
        [37, 38, 0.01309317, 0.0092604, 0, 999, 999, 999, 0, 0, 1, -360, 360],
        [38, 39, 0.00603212, 0.00426364, 0, 999, 999, 999, 0, 0, 1, -360, 360],
        [39, 40, 0.0022315, 0.00157555, 0, 999, 999, 999, 0, 0, 1, -360, 360],
        [40, 41, 0.0059035, 0.00418004, 0, 999, 999, 999, 0, 0, 1, -360, 360],
        [41, 42, 0.01490667, 0.01054656, 0, 999, 999, 999, 0, 0, 1, -360, 360],
        [42, 43, 0.00776201, 0.00549193, 0, 999, 999, 999, 0, 0, 1, -360, 360],
        [43, 44, 0.00284886, 0.00201928, 0, 999, 999, 999, 0, 0, 1, -360, 360],
        [44, 45, 0.00260449, 0.00185208, 0, 999, 999, 999, 0, 0, 1, -360, 360],
        [45, 46, 0.00102893, 0.00081672, 0, 999, 999, 999, 0, 0, 1, -360, 360],
        [46, 47, 0.00409001, 0.00289387, 0, 999, 999, 999, 0, 0, 1, -360, 360],
        [47, 48, 0.00268166, 0.0018971, 0, 999, 999, 999, 0, 0, 1, -360, 360],
        [48, 49, 0.00470737, 0.00327972, 0, 999, 999, 999, 0, 0, 1, -360, 360],
        [49, 50, 0.00532473, 0.00357554, 0, 999, 999, 999, 0, 0, 1, -360, 360],
        [50, 51, 0.00255947, 0.00181349, 0, 999, 999, 999, 0, 0, 1, -360, 360],
        [51, 52, 0.00144694, 0.0010225, 0, 999, 999, 999, 0, 0, 1, -360, 360],
        [38, 53, 0.00540833, 0.00382634, 0, 999, 999, 999, 0, 0, 1, -360, 360],
        [42, 54, 0.00103536, 0.00073311, 0, 999, 999, 999, 0, 0, 1, -360, 360],
        [54, 55, 0.00338905, 0.0023987, 0, 999, 999, 999, 0, 0, 1, -360, 360],
        [55, 56, 0.00574273, 0.00406429, 0, 999, 999, 999, 0, 0, 1, -360, 360],
        [56, 57, 0.00557553, 0.0039421, 0, 999, 999, 999, 0, 0, 1, -360, 360],
        [57, 58, 0.00433438, 0.00306751, 0, 999, 999, 999, 0, 0, 1, -360, 360],
        [58, 59, 0.00301606, 0.00213504, 0, 999, 999, 999, 0, 0, 1, -360, 360],
        [55, 60, 0.0021479, 0.00151768, 0, 999, 999, 999, 0, 0, 1, -360, 360],
        [60, 61, 0.00210288, 0.00149195, 0, 999, 999, 999, 0, 0, 1, -360, 360],
        [61, 62, 0.00264307, 0.00187137, 0, 999, 999, 999, 0, 0, 1, -360, 360],
        [60, 63, 0.00227008, 0.00160771, 0, 999, 999, 999, 0, 0, 1, -360, 360],
        [63, 64, 0.00673308, 0.00476525, 0, 999, 999, 999, 0, 0, 1, -360, 360],
        [64, 65, 0.00433438, 0.00306751, 0, 999, 999, 999, 0, 0, 1, -360, 360],
        [65, 66, 0.00194211, 0.0013762, 0, 999, 999, 999, 0, 0, 1, -360, 360],
        [66, 67, 0.00293246, 0.00207716, 0, 999, 999, 999, 0, 0, 1, -360, 360],
        [67, 68, 0.00140192, 0.00099035, 0, 999, 999, 999, 0, 0, 1, -360, 360],
        [63, 69, 0.00235368, 0.00166559, 0, 999, 999, 999, 0, 0, 1, -360, 360],
        [55, 70, 0.00148552, 0.00105466, 0, 999, 999, 999, 0, 0, 1, -360, 360],
        [70, 71, 0.0007717, 0.00018649, 0, 999, 999, 999, 0, 0, 1, -360, 360],
        [70, 72, 0.00450158, 0.00318326, 0, 999, 999, 999, 0, 0, 1, -360, 360],
        [42, 73, 0.00148552, 0.00105466, 0, 999, 999, 999, 0, 0, 1, -360, 360],
        [73, 74, 0.00019292, 0.00041157, 0, 999, 999, 999, 0, 0, 1, -360, 360],
        [43, 75, 0.00243728, 0.00172346, 0, 999, 999, 999, 0, 0, 1, -360, 360],
        [44, 76, 0.00354982, 0.00251445, 0, 999, 999, 999, 0, 0, 1, -360, 360],
        [46, 77, 0.00331831, 0.00280384, 0, 999, 999, 999, 0, 0, 1, -360, 360],
        [76, 78, 0.00107395, 0.00070739, 0, 999, 999, 999, 0, 0, 1, -360, 360],
        [78, 79, 0.00266879, 0.00064951, 0, 999, 999, 999, 0, 0, 1, -360, 360],
        [79, 80, 0.00645012, 0.00156912, 0, 999, 999, 999, 0, 0, 1, -360, 360],
        [79, 81, 0.00972985, 0.00237941, 0, 999, 999, 999, 0, 0, 1, -360, 360],
        [81, 82, 0.00021222, 5.145e-05, 0, 999, 999, 999, 0, 0, 1, -360, 360],
        [47, 83, 0.00054662, 0.00039871, 0, 999, 999, 999, 0, 0, 1, -360, 360],
        [49, 84, 0.00332474, 0.00288744, 0, 999, 999, 999, 0, 0, 1, -360, 360],
        [50, 85, 0.00094533, 0.00023151, 0, 999, 999, 999, 0, 0, 1, -360, 360],
        [85, 86, 0.00023794, 0.00010289, 0, 999, 999, 999, 0, 0, 1, -360, 360],
        [86, 87, 0, 6.43e-06, 0, 999, 999, 999, 0, 0, 1, -360, 360],
        [7, 88, 0.00111896, 0.00148552, 0, 999, 999, 999, 0, 0, 1, -360, 360],
        [88, 89, 0.00301606, 0.00401927, 0, 999, 999, 999, 0, 0, 1, -360, 360],
        [89, 90, 0.00192282, 0.00255947, 0, 999, 999, 999, 0, 0, 1, -360, 360],
        [90, 91, 0.00136334, 0.00181993, 0, 999, 999, 999, 0, 0, 1, -360, 360],
        [91, 92, 0.00202571, 0.00270095, 0, 999, 999, 999, 0, 0, 1, -360, 360],
        [92, 93, 0.00180063, 0.0023987, 0, 999, 999, 999, 0, 0, 1, -360, 360],
        [93, 94, 0.00132475, 0.00176205, 0, 999, 999, 999, 0, 0, 1, -360, 360],
        [94, 95, 0.00132475, 0.00176205, 0, 999, 999, 999, 0, 0, 1, -360, 360],
        [89, 96, 0.00441798, 0.00312538, 0, 999, 999, 999, 0, 0, 1, -360, 360],
        [96, 97, 0.00623791, 0.00441155, 0, 999, 999, 999, 0, 0, 1, -360, 360],
        [97, 98, 0.00580061, 0.00126044, 0, 999, 999, 999, 0, 0, 1, -360, 360],
        [97, 99, 0.00021222, 5.145e-05, 0, 999, 999, 999, 0, 0, 1, -360, 360],
        [99, 100, 0.00021222, 5.145e-05, 0, 999, 999, 999, 0, 0, 1, -360, 360],
        [91, 101, 0.00148552, 0.00105466, 0, 999, 999, 999, 0, 0, 1, -360, 360],
        [101, 102, 0.00371702, 0.00263021, 0, 999, 999, 999, 0, 0, 1, -360, 360],
        [102, 103, 0.00571701, 0.00139549, 0, 999, 999, 999, 0, 0, 1, -360, 360],
        [103, 104, 0.00404499, 0.00098392, 0, 999, 999, 999, 0, 0, 1, -360, 360],
        [104, 105, 0.00752407, 0.00183279, 0, 999, 999, 999, 0, 0, 1, -360, 360],
        [104, 106, 0.00073311, 0.0001672, 0, 999, 999, 999, 0, 0, 1, -360, 360],
        [92, 107, 0.00545978, 0.00133118, 0, 999, 999, 999, 0, 0, 1, -360, 360],
        [94, 108, 0.00393567, 0.00167202, 0, 999, 999, 999, 0, 0, 1, -360, 360],
        [108, 109, 0.00290674, 0.00123472, 0, 999, 999, 999, 0, 0, 1, -360, 360],
        [94, 110, 0.00021222, 5.145e-05, 0, 999, 999, 999, 0, 0, 1, -360, 360],
        [7, 111, 0.00462377, 0.00327329, 0, 999, 999, 999, 0, 0, 1, -360, 360],
        [10, 112, 0.00688099, 0.00167845, 0, 999, 999, 999, 0, 0, 1, -360, 360],
        [11, 113, 0.0022315, 0.00157555, 0, 999, 999, 999, 0, 0, 1, -360, 360],
        [13, 114, 0.00400641, 0.002836, 0, 999, 999, 999, 0, 0, 1, -360, 360],
        [114, 115, 0.0042958, 0.00304178, 0, 999, 999, 999, 0, 0, 1, -360, 360],
        [115, 116, 0.00025723, 6.431e-05, 0, 999, 999, 999, 0, 0, 1, -360, 360],
        [14, 117, 0.003254, 0.00235368, 0, 999, 999, 999, 0, 0, 1, -360, 360],
        [15, 118, 0.00103536, 0.00073311, 0, 999, 999, 999, 0, 0, 1, -360, 360],
        [118, 119, 0.00297104, 0.00210288, 0, 999, 999, 999, 0, 0, 1, -360, 360],
        [119, 120, 0.00272667, 0.00192925, 0, 999, 999, 999, 0, 0, 1, -360, 360],
        [120, 121, 0.00326043, 0.00230867, 0, 999, 999, 999, 0, 0, 1, -360, 360],
        [121, 122, 0.00470737, 0.00333117, 0, 999, 999, 999, 0, 0, 1, -360, 360],
        [122, 123, 0.00375561, 0.00266236, 0, 999, 999, 999, 0, 0, 1, -360, 360],
        [123, 124, 0.00392281, 0.00277812, 0, 999, 999, 999, 0, 0, 1, -360, 360],
        [124, 125, 0.00503534, 0.00356268, 0, 999, 999, 999, 0, 0, 1, -360, 360],
        [125, 126, 0.00536331, 0.00390351, 0, 999, 999, 999, 0, 0, 1, -360, 360],
        [126, 127, 0.0022315, 0.00157555, 0, 999, 999, 999, 0, 0, 1, -360, 360],
        [127, 128, 0.00366557, 0.00270095, 0, 999, 999, 999, 0, 0, 1, -360, 360],
        [128, 129, 0.00376204, 0.0027331, 0, 999, 999, 999, 0, 0, 1, -360, 360],
        [129, 130, 0.00066238, 0.00046945, 0, 999, 999, 999, 0, 0, 1, -360, 360],
        [119, 131, 0.00228294, 0.001627, 0, 999, 999, 999, 0, 0, 1, -360, 360],
        [131, 132, 0.0022315, 0.00157555, 0, 999, 999, 999, 0, 0, 1, -360, 360],
        [131, 133, 0.00591636, 0.00430223, 0, 999, 999, 999, 0, 0, 1, -360, 360],
        [121, 134, 0.00540833, 0.00393567, 0, 999, 999, 999, 0, 0, 1, -360, 360],
        [16, 135, 0.00338905, 0.0023987, 0, 999, 999, 999, 0, 0, 1, -360, 360],
        [16, 136, 0.00194211, 0.0013762, 0, 999, 999, 999, 0, 0, 1, -360, 360],
        [18, 137, 0.00375561, 0.00266236, 0, 999, 999, 999, 0, 0, 1, -360, 360],
        [23, 138, 0.00494531, 0.00359483, 0, 999, 999, 999, 0, 0, 1, -360, 360],
        [25, 139, 0.00610929, 0.00432795, 0, 999, 999, 999, 0, 0, 1, -360, 360],
        [30, 140, 0.0033376, 0.00242442, 0, 999, 999, 999, 0, 0, 1, -360, 360],
        [31, 141, 0.00375561, 0.00266236, 0, 999, 999, 999, 0, 0, 1, -360, 360],
    ])

    return ppc

def pf_case():
    ppc = case()
    from pypower.idx_bus import PD, QD, VM, VA, GS, BUS_TYPE, PQ, REF, VMAX, VMIN
    from pypower.idx_gen import PG
    ppc["bus"][:, PD] *= 0.5

    ppc["bus"][:, VMAX] = 1.2
    ppc["bus"][:, VMIN] = 0.8
    ppc["vmax"] = 1.05
    ppc["vmin"] = 0.95
    ## generator data
    # bus, Pg, Qg, Qmax, Qmin, Vg, mBase, status, Pmax, Pmin, Pc1, Pc2, Qc1min, Qc1max, Qc2min, Qc2max, ramp_agc, ramp_10, ramp_30, ramp_q, apf
    ppc["gen"] = array([
        [1, 0, 0, 999, -999, 1, 100, 1, 999, 0, 0, 0, 0, 0, 0, 0, 0, 0, 0, 0, 0],
        # PV
        [50 , 0.5, 0.6, 4, -4, 1, 100, 1, 10, 0, 0, 0, 0, 0, 0, 0, 0, 0, 0, 0, 0],
        [85 , 0.5, 0.6, 4, -4, 1, 100, 1, 10, 0, 0, 0, 0, 0, 0, 0, 0, 0, 0, 0, 0],
        [83 , 0.5, 0.6, 4, -4, 1, 100, 1, 10, 0, 0, 0, 0, 0, 0, 0, 0, 0, 0, 0, 0],
        [68 , 0.5, 0.6, 4, -4, 1, 100, 1, 10, 0, 0, 0, 0, 0, 0, 0, 0, 0, 0, 0, 0],
        [62 , 0.5, 0.6, 4, -4, 1, 100, 1, 10, 0, 0, 0, 0, 0, 0, 0, 0, 0, 0, 0, 0],
        [59 , 0.5, 0.6, 4, -4, 1, 100, 1, 10, 0, 0, 0, 0, 0, 0, 0, 0, 0, 0, 0, 0],
        [100, 0.5, 0.6, 4, -4, 1, 100, 1, 10, 0, 0, 0, 0, 0, 0, 0, 0, 0, 0, 0, 0],
        [106, 0.5, 0.6, 4, -4, 1, 100, 1, 10, 0, 0, 0, 0, 0, 0, 0, 0, 0, 0, 0, 0],
        [109, 0.5, 0.6, 4, -4, 1, 100, 1, 10, 0, 0, 0, 0, 0, 0, 0, 0, 0, 0, 0, 0],
        [140, 0.5, 0.6, 4, -4, 1, 100, 1, 10, 0, 0, 0, 0, 0, 0, 0, 0, 0, 0, 0, 0],
        [141, 0.5, 0.6, 4, -4, 1, 100, 1, 10, 0, 0, 0, 0, 0, 0, 0, 0, 0, 0, 0, 0],
        [130, 0.5, 0.6, 4, -4, 1, 100, 1, 10, 0, 0, 0, 0, 0, 0, 0, 0, 0, 0, 0, 0],
        [133, 0.5, 0.6, 4, -4, 1, 100, 1, 10, 0, 0, 0, 0, 0, 0, 0, 0, 0, 0, 0, 0],
        # SVC
        [123, 0, 0.6, 4, -4, 1, 100, 1, 10, 0, 0, 0, 0, 0, 0, 0, 0, 0, 0, 0, 0],
        [137, 0, 0.6, 4, -4, 1, 100, 1, 10, 0, 0, 0, 0, 0, 0, 0, 0, 0, 0, 0, 0],
        [91 , 0, 0.6, 4, -4, 1, 100, 1, 10, 0, 0, 0, 0, 0, 0, 0, 0, 0, 0, 0, 0],
        [55 , 0, 0.6, 4, -4, 1, 100, 1, 10, 0, 0, 0, 0, 0, 0, 0, 0, 0, 0, 0, 0],
        [47 , 0, 0.6, 4, -4, 1, 100, 1, 10, 0, 0, 0, 0, 0, 0, 0, 0, 0, 0, 0, 0],
    ])

    # gen_id, from 0
    ppc["controlled_gen"] = array([
        [1],
        [2],
        [3],
        [4],
        [5],
        [6],
        [7],
        [8],
        [9],
        [10],
        [11],
        [12],
        [13],
        [14],
        [15],
        [16],
        [17],
        [18],
    ])

    ppc["load_p"] = array([
        [0.27963984866570346,0.315429210836525,0.29228695742061633,0.36503772896220144,0.42834933540235376,0.2838399866371977,0.3668343522933791,0.29049157140098786,0.4070745871489388,0.3408965131313149,0.37214460924902043,0.292341885167325,0.2813250069421212,0.3470591158872742,0.31803093362799634,0.43376179970038675,0.3984589601272627,0.3966019935261541,0.43121239599886024,0.2726808170078512,0.3753488243994277,0.39353387510809634,0.4838254856213837,0.3668457821743862,0.376327287252842,0.3701717509404085,0.37740895714130107,0.5863348730828276,0.5617450069490226,0.6136831108905366,0.5427480601316103,0.6347651804688769,0.5616765887195434,0.6783745173000887,0.8094310226027577,0.8216961839284892,0.7461273271054248,0.902935744621095,0.7868380371585163,0.958118429902066,0.9798899311517021,0.9694782823927787,0.9472409654439861,1.0,0.8783898039180595,0.9750984755848005,0.9056490897225778,0.7547200915125442,0.7871837623753657,0.7097767873264594,0.8382265290353303,0.6991939848719236,0.6673002637920504,0.6640548659880104,0.5827482436298991,0.5145821295970132,0.6360694984219367,0.4997983665984226,0.5616627269123954,0.509011230712615,0.4965650428173989,0.670861204048819,0.7206974379125033,0.7505027794218077,0.7744506353512159,0.7833272746723814,0.728998864095112,0.7091674199276576,0.7998972167922471,0.7828100153042183,0.7714771544303617,0.7529679649324907,0.8717552982555121,0.6982298479381046,0.8083574259550257,0.6331105641475505,0.5648054522220584,0.5110469512551827,0.5746239834751349,0.44205018644756694,0.43987911561703247,0.4424075720430472,0.48959405411182044,0.4585266415214475,0.36994493780426607,0.3503642870055432,0.34662284108851765,0.40875424619629236,0.412845114177792,0.4609771545193658,0.5109650547417324,0.511094386917801,0.4173214486383419,0.4146799171330868,0.34002938183151926,0.4121629340168191],
        [0.43493510340516356,0.548272917887276,0.3634409272426071,0.30648841997119153,0.4589027643052973,0.2872153091168595,0.3637235378949797,0.21550009443525614,0.342708197849979,0.36371042965725636,0.22857285595784527,0.2460414719949111,0.2431478948034887,0.3225325306958634,0.21974720793241764,0.21306895106849938,0.28128050916747893,0.2643017448227794,0.3925841291466062,0.2864548227792305,0.36467291891585457,0.48278459024738946,0.44712646122070865,0.5271623227367884,0.5755904350483689,0.5706371322384998,0.5956375920180599,0.688067074438082,0.7300504620548535,0.6527474177253734,0.6085086645602068,0.6891658598270494,0.6924194755258285,0.7784191218244987,0.7466093742351301,0.8705730609991611,0.8459738109599362,0.9710411094206159,1.0,0.9215232706827942,0.869691398933464,0.9364364020650683,0.9955810094776961,0.8834439566912573,0.8988465031846359,0.819883065189843,0.8335481965245296,0.7941853252207517,0.7317378936937577,0.7540209990037027,0.6815098239379545,0.664002377239395,0.6672805019715433,0.6890549268991388,0.5799894318937023,0.6855917842141258,0.6590253034012197,0.4798827579960881,0.5187496004580014,0.5603683059289846,0.49602991508450656,0.5599044673487266,0.6594766758305896,0.6682066140909247,0.6794770784303319,0.7222947159905041,0.6406237040504303,0.6916896324515988,0.7812348691315047,0.8391111506292106,0.7789264969105812,0.727621848176239,0.6701025709973365,0.798810050577342,0.6307095167892672,0.6797064762208228,0.6809297770654552,0.728122717008888,0.5179932231072264,0.548439133880706,0.43476995886506575,0.4706569726756546,0.5018443424594782,0.4061082773848518,0.37088263402096266,0.3336552720503536,0.4156897544419073,0.4289538555863553,0.4155893550333738,0.4678849796469164,0.26721290299564726,0.4019162670473293,0.3947106525173259,0.3974413979035744,0.4833401730041815,0.2956485979081942],
        [0.4823826583681198,0.43448829591868626,0.44867941696554914,0.3480422731244272,0.3936957839293309,0.3550659674938387,0.2880166735083372,0.2807200585326405,0.30808328499794835,0.19245847974256122,0.34250562899853154,0.30964725180238434,0.3285931231196953,0.29710222571928707,0.2199415382516072,0.29035101063199137,0.30283702104103805,0.2993952391765989,0.2550061050478764,0.4128464127997824,0.3011068021565143,0.4163725808615648,0.450888030603829,0.45220383324315805,0.5333114573474007,0.37657040414060905,0.5479672174628947,0.3967363263746816,0.5182928475137649,0.5127307541472379,0.5594990782003758,0.5517857668881583,0.5430624176840306,0.5372862113293493,0.6695255201070738,0.7692694936075429,0.711489492385743,0.720951756331641,0.7328468837634141,0.7729249867849555,0.8356368114554209,0.8400673978121768,0.8937614133705389,0.8629529078485203,0.8589017030018076,1.0,0.82871110489678,0.8690027212875185,0.8664626581238508,0.7542950205789661,0.6459199550050322,0.6124117004783903,0.6243415368594513,0.6185218794036496,0.5669041717597547,0.6469253121396974,0.6403294795219447,0.6809609672372204,0.5085806772438557,0.6955833998444035,0.6071424887898899,0.7186888828759892,0.6937636011420791,0.7658763265935782,0.7307898600998163,0.660442771122282,0.6954708087369617,0.6753509500989885,0.6753418567493837,0.6534788060087843,0.696581605328282,0.7257791544826566,0.6313840618348407,0.664153141485368,0.5611967494140947,0.5466656233222876,0.4994814828229588,0.6617719977010439,0.4430949647375428,0.4573684076059581,0.5275298320863084,0.4068133884527022,0.5590638724366326,0.5197698829448957,0.5653412642581385,0.4697598036047579,0.4256166477125814,0.4734985293736699,0.5471151856626897,0.45903824832960893,0.4000061958743425,0.512132660379628,0.3946406532767652,0.2994426091352644,0.3231157650599832,0.304704073460849],
        [0.3969974986819992,0.36126631948428334,0.35857026675950965,0.2728481329106403,0.3241869405417368,0.35870597125660114,0.35783582207848513,0.26815011755408674,0.34503473970114523,0.3346054930977864,0.21841551252219008,0.353067560063546,0.27039392758212694,0.27775945965385124,0.2704176014948217,0.29420387203771653,0.306839091892148,0.28758548300716413,0.363360945243671,0.32572433049537064,0.2925790435112627,0.30747897647289846,0.3964612673332593,0.3249712535807089,0.31739376989052237,0.308911956323754,0.4862119104172815,0.5184939423140189,0.39301869514490906,0.4615119679183806,0.4608473919545208,0.48074420691135133,0.6622985818890873,0.5366406262069271,0.7477119556467268,0.617165045032991,0.8013036331557868,0.784546968671902,0.785992906093429,0.8180352535793074,0.929683427580138,0.8727660521528514,0.9573736476841471,0.9410535199940181,0.9340709451667373,1.0,0.9104387453447635,0.9296557615092205,0.871461792339677,0.6976921235012886,0.7913838234625717,0.6399172561902262,0.7261520423605116,0.5226492694982188,0.541954043657515,0.46689900470251766,0.5129185176203839,0.5589251152443174,0.4469725013220213,0.4130223986618452,0.4484497360961332,0.5491759343047247,0.43670653131374976,0.4734504555172957,0.46701065998223357,0.613418396565872,0.5804644131527806,0.5893362356418534,0.689037494868507,0.6346706176146267,0.721710966725952,0.7439376793606634,0.6276300753041753,0.7588032017123867,0.5847315480117891,0.5835640948053226,0.5337561691690162,0.5355693930513732,0.5328565511971058,0.5162730106724858,0.5605506036593723,0.5563407536967179,0.4250185237065083,0.5023375009557459,0.4098192432082691,0.482408871362097,0.46371561876193673,0.4689014678734375,0.5042373526695926,0.5509692024716216,0.41987276238054533,0.5607929756028441,0.5120055696603687,0.3745310907816842,0.47607882579107724,0.33756037071348666],
        [0.34159420088905984,0.3946558047317257,0.26457075109142,0.4106458568378757,0.27988602903469845,0.4744535945462818,0.41221541467213996,0.4032322941134038,0.3538903432709471,0.47546940932505155,0.3429289872003539,0.4474791069218867,0.4721970523618312,0.42656661784016286,0.3685943796475399,0.2742151947742283,0.34771632305593086,0.3366101791747341,0.28785440799265505,0.32980992315880364,0.3183456178159968,0.28461831987040626,0.3454144533302483,0.32012316713764816,0.38267949396779777,0.3026657202645742,0.4894634888638368,0.49182655023244537,0.4628549050349265,0.5459008759996028,0.5946725976217041,0.45856489328566236,0.591810197427172,0.6975758864545982,0.732216019657189,0.6962393187427017,0.6448152729182722,0.7762056710205192,0.7056530008353636,0.7837024478770426,0.9655393314570905,0.8705756754105974,0.9470837001009466,0.8814388805406135,1.0,0.9295385065464518,0.8102051781531507,0.8481832605251456,0.656702005278465,0.6506865023816558,0.5569450996808457,0.5910399130209135,0.4302798269013913,0.45114288310968703,0.40247613681765454,0.4324112810758044,0.3969733210255004,0.47038132302801317,0.35006046147135644,0.4885721816596026,0.4368703488403779,0.47706935197994715,0.6177821497135352,0.6881682011384771,0.6052477236060582,0.7455758175923702,0.6439739412626895,0.7825110504131283,0.835442599818958,0.7429304109935027,0.8102322810985063,0.9056653232835228,0.7449751519026147,0.7085236571449799,0.7893845871117828,0.7206464344249028,0.7473843503327895,0.7250590083005256,0.5569828839146739,0.5304284855200437,0.5109099558477336,0.499601840882978,0.5525334804645443,0.47881764490309925,0.4060943694084177,0.3729436956321576,0.49993667251091817,0.3392410545238916,0.4509972690948736,0.48917451551170027,0.43601680476750143,0.38492023760923993,0.3346095177970895,0.3570817178770255,0.40824173208543957,0.37666848028659683],
        [0.4357415201785348,0.356709256295631,0.5665581712178662,0.5624447244517865,0.5637637881855305,0.4213230955507449,0.5006826178195721,0.4446925018429278,0.585446860318683,0.5459376692246105,0.5729099019690753,0.5754265836258892,0.5141801975200665,0.5463838420846695,0.4427964417212198,0.2955275038701054,0.2768896766896822,0.3412537523946037,0.44454298569855516,0.4527215808069239,0.4783839477881375,0.28472528921316254,0.2961955262018072,0.5153589420717588,0.4026792999316741,0.48999284265341453,0.61958338444384,0.5225264171506349,0.6203735458678602,0.5986831283638756,0.721603027013718,0.7060588539457993,0.6784973525110932,0.7233704039836282,0.7555330596156564,0.8505215048569431,0.9186596426798861,1.0,0.9627290410209282,0.998472243419033,0.8695053750146718,0.9207680191605067,0.9279380745529733,0.9812323416942164,0.8761083893435806,0.8540482172616924,0.8359700603280542,0.9046778836849647,0.8137621157389233,0.6598974655778569,0.621143908857109,0.6500765376242408,0.7055107482683949,0.657800910257595,0.6375750408515898,0.6323354187637921,0.5107179047068218,0.5648797679449442,0.5659939900926784,0.6210060008132509,0.6894178453517122,0.5624982677298598,0.7147310538363403,0.7244565064070951,0.7496067131390803,0.8384824641729217,0.9208087595627229,0.7552448139972207,0.8168211309766438,0.9851579136220633,0.8529918489001678,0.961778245768238,0.8919871769730189,0.8882237972986781,0.9575542173409102,0.767425429765693,0.9158968179942351,0.7710632511202734,0.7362094961357044,0.698618489281095,0.6811056342427888,0.5778399957117029,0.4939109314423873,0.5203350065965503,0.46741237471497493,0.540407000188392,0.4731447080181018,0.6071932331993839,0.5975363891519873,0.5067262672798708,0.4923193811418612,0.5595758861150344,0.5169836127761583,0.46416250860214586,0.33060809052083556,0.30494958229070845],
        [0.34256591005607157,0.37140663324107037,0.2898824551869822,0.31405057733688035,0.3087861261414883,0.32784655827700665,0.16789509021518437,0.2462960858753573,0.21813179466412258,0.3187733146994874,0.15595580271337012,0.33876343424427396,0.3245817775140858,0.1721511159091806,0.26883784982244924,0.3293199986059119,0.3504756149270815,0.40393200991850303,0.40411194991603594,0.32929128788354695,0.393830228302844,0.4639252453177093,0.3808141635943228,0.4246305831149127,0.516545508458593,0.5141695932422936,0.6634927537789225,0.6426736002625316,0.6293327939241337,0.7646168678668226,0.7885972297812317,0.859111848137428,0.8579433134366534,0.7973947532161928,0.7636625802498234,0.9292940180768973,0.7889343471413087,0.8615996213265631,0.9865410319155261,1.0,0.9355350687470652,0.940549483659884,0.7996227519492076,0.8794181401271316,0.864237989346389,0.7947202671036329,0.7075964906401162,0.7051595993598943,0.6954221868552434,0.6759579653795389,0.674958386571434,0.6733422688040027,0.5692309601289408,0.5567695777560036,0.48647547991878354,0.4893984735724142,0.5375135694445818,0.6441774341831944,0.6345516108420943,0.6795160976636412,0.6981898794702164,0.736556834028651,0.7306130333488295,0.8048960282950902,0.8100856384079155,0.767084141494457,0.7855755993310499,0.6888951262927576,0.8960872541584362,0.7282898304192346,0.854271379650583,0.8675863747185515,0.7673766350575425,0.7152757097553892,0.6730223721043247,0.7775137194414935,0.6871203017475909,0.707385549465658,0.7147990883174337,0.5261758787816269,0.6513633573429746,0.5201773030858634,0.4732028843284659,0.5798444003253617,0.5699144566745696,0.39293841512424027,0.4718323370962769,0.34941014903896955,0.451421613703207,0.481679330935962,0.4500312458044862,0.39589608020407857,0.3915692040314174,0.39883841510481377,0.44646239284666506,0.5159299784316586],
        [0.30491286770434495,0.2757260029168465,0.39102686722927055,0.4847868382496189,0.498040468142964,0.3457559784106206,0.4643461871450469,0.5157901431366522,0.38190002671393947,0.4905745250866342,0.5104711167114049,0.48202843497416126,0.3181287940542041,0.2855067838252781,0.3147930678109776,0.32235025647534366,0.3900648401878872,0.33359545355115966,0.40081606861810043,0.32503910610243925,0.2867814477255988,0.3314660467968449,0.47119388779282123,0.5060156197713145,0.3636809740967123,0.516254668747424,0.4314482002286251,0.5961716614526722,0.47020278816641914,0.6132585925953357,0.5201868414110928,0.7498776055124103,0.7248496022447535,0.7901641789268443,0.7634006612780112,0.7758863129580794,0.8380522821602931,0.8457980910238646,0.858212581250125,0.9439336049361345,0.835071110575935,0.8477552486047167,0.9143459960796566,0.8942753358842227,0.8387887747418767,1.0,0.9708072500805711,0.9025204357051905,0.9748146731337903,0.7489915460344855,0.8701909302079766,0.7266838857403342,0.7125850134684293,0.6415718207582428,0.7279289585780285,0.5500235230369415,0.6694409969785806,0.6029641773841207,0.4510930202106914,0.605328035819534,0.5660443246336315,0.6401343611784939,0.630111291770958,0.621664685285882,0.7206847857476479,0.6406914229982498,0.7431835973987128,0.7301423380520484,0.916812859675888,0.7872563767471027,0.7657981524581118,0.8476378805523791,0.8871191983692068,0.7694699049282687,0.859696653722316,0.8936326810772831,0.8156696937191108,0.7544351094127645,0.7848037110832141,0.7467511356792199,0.6861019646683573,0.6170552146758416,0.5778640740218077,0.46792501868703157,0.596870718805182,0.6830622338357101,0.6494044739118998,0.5482543236976264,0.508226152754039,0.643955701298515,0.6266693424404122,0.6594361507802872,0.6137196177183455,0.5070568017374226,0.3577379452042647,0.37681202522837637],
        [0.35079764869603597,0.43351576674540476,0.36533220940554983,0.3788520271383746,0.3316919496788132,0.35307603655131237,0.25892689013588943,0.4269307476258036,0.40946985153747495,0.46986959571372616,0.3291886534616156,0.3258417011329004,0.31701269096791734,0.5125049354124047,0.4882763494688637,0.3718760331656578,0.4724604013938469,0.4603676818508137,0.4222873599219829,0.4436817389317748,0.6362942686431693,0.5140204297139179,0.6716687953215357,0.5051374836136846,0.6089039071370655,0.5580691626346453,0.5518181200705694,0.6910260827590063,0.6165978539522506,0.7682984454666114,0.7832796908280237,0.6904463827929411,0.8751939477443879,0.8465677818627251,0.7737386293257227,0.8805043147651782,0.9027293214458939,0.8350301832398268,0.8568937478345757,0.8651094675164948,0.9285139484252358,0.9925247362395249,0.8320614774347012,0.9729674609135145,0.7709242203847247,0.8796199727538513,0.7913027581914311,0.8323057703084356,0.7737902439218467,0.6774789606753546,0.6698614401226671,0.5996146983822365,0.6324919888632018,0.5333939052139605,0.5246006645304132,0.45448853883398177,0.5275302177037192,0.46651230237057234,0.5377328757203462,0.4694451780273303,0.49473710292318657,0.5852715990094886,0.6279560137156102,0.6377834966504223,0.6538083584651997,0.6786413906770378,0.7175608979430361,0.8077191606054768,0.8786884375646346,0.9564381795890544,0.9114743141571997,1.0,0.7926473650568442,0.787662533398415,0.7719048568799673,0.764473933669045,0.7599423587852153,0.5867923637254753,0.5079980125805286,0.4103066677729201,0.5332211630384268,0.41202511648719126,0.44144422935899047,0.5296476621599548,0.32553213321298946,0.37064788737030907,0.5250940627991283,0.5493283693738478,0.558634798542116,0.521413321008745,0.6230682778184523,0.49423910787490277,0.523847711598784,0.37835122975238084,0.40703315315077043,0.40890464961281275],
        [0.4921842772912895,0.5257676549596901,0.5213384674108607,0.5101508580393613,0.40735242151384976,0.39389175792827424,0.48311521422418313,0.4137506281961905,0.2794396776617604,0.36094104063246635,0.3097149623244016,0.42832302775444997,0.21725061278213958,0.3322088081605982,0.3486499630242182,0.2546475054499356,0.394039861896222,0.37138474587140835,0.3868376965827377,0.2090575074178235,0.33328842295442723,0.2908470952238095,0.42303800059570534,0.39951384394372313,0.4041628059615821,0.3433697735893999,0.46032296662109734,0.5105447906149514,0.6105769620246453,0.5688894885287915,0.683920302809273,0.7199631323250066,0.6937731370823566,0.7025935900551247,0.733219776432022,0.8596086755758469,0.7203548963887306,0.7758152986250586,0.8090146071796026,0.9758732734331066,0.916072353674957,0.9967327004381086,1.0,0.9549017714436278,0.9727148863393666,0.9708956333974392,0.9958560350145121,0.876578704281457,0.8357379596597041,0.6722150964564141,0.8048424883200571,0.6714998868395555,0.6888955026462403,0.5042179809772857,0.5597714017783102,0.5129494532227616,0.5089204760415788,0.6169534296559438,0.5871873781987802,0.5579920532328524,0.48125459165411477,0.6919961865660635,0.7067253798879762,0.5693527967337966,0.5494886277017365,0.666519712071022,0.7687263141296249,0.7741345714735889,0.7187810283428581,0.6700211626830256,0.6815074076176704,0.8009323038943632,0.7150762371032232,0.6338908717455674,0.6471226773412158,0.6385784945528477,0.5898903697989535,0.6409143077723972,0.7141714096126756,0.6425452529877335,0.49923737278527935,0.46606072560680745,0.5036168986740447,0.5042193892642867,0.5734648702778978,0.5976078673734354,0.464041360094212,0.5127635060478128,0.5644200014819709,0.5021456452988652,0.46975767443976485,0.34588170148768754,0.3887548749091663,0.5038555986643221,0.3513186691074041,0.47933471722291426],
        [0.5939703828772221,0.48487719447335215,0.3867505243217036,0.3975010141551269,0.22465311825719078,0.2697501887610217,0.17792748528040978,0.1905926742008698,0.1663952544893345,0.2140210352762209,0.22517208190884955,0.3563501351351389,0.2291530578876683,0.2936639518883821,0.3891478926412657,0.41708047955885147,0.43275041757335747,0.36661168372566916,0.4427404090396788,0.4109833020352377,0.44487885820440554,0.5301264426126161,0.6265758688443598,0.6141226831016205,0.721515812493127,0.7406629865603636,0.6024976893521142,0.7447902215432799,0.7817075017176902,0.8832315169823186,0.7119040978996362,0.8438870254193422,0.7989810761196942,0.7896240262492343,0.9230558866656856,0.9815681640963936,0.9999989302285283,0.8593643245315015,0.9520878819690335,0.8854492068130982,0.9331317766040724,0.9205945005199233,0.917440096167796,0.9277565302205784,0.8900177153281121,1.0,0.8296504252526296,0.8963103852616616,0.6955829750233458,0.7667815782071785,0.5687891410561811,0.6068515977149255,0.47006318252264734,0.6068027268419965,0.6117439701224491,0.4024794851315608,0.5831103523702429,0.5486946089875094,0.4683630561442782,0.5988897586323102,0.49222986319138323,0.5455605794465459,0.5149095145826114,0.6717720854067484,0.5804745670349134,0.717111236752783,0.7977492241360523,0.8619394897372326,0.7500863973784107,0.8992453565655406,0.9044332904055926,0.8721306393253223,0.8655314678101454,0.7355706255407964,0.8047590152780181,0.7118104999846186,0.7615669324863759,0.5896209537336276,0.5903707927865425,0.5076379522130138,0.5578531680869621,0.39145224971870896,0.3279348733408928,0.44997772305396844,0.3668935199524109,0.39713100952376346,0.2762664338499563,0.47218392448577595,0.4598578445287293,0.4110694255543317,0.28815716167475175,0.36815606970390374,0.49674724148106725,0.43323745847289935,0.3187651369261043,0.3718253775104362],
        [0.2520917298600434,0.3134930274004711,0.2218538576780864,0.35654779650085044,0.19358861584880346,0.2570579652949302,0.22019710867361225,0.19164654718862412,0.3050976709361624,0.29142641262549385,0.18717590109511864,0.2798020708742774,0.3138218004092172,0.31658197617750833,0.19888055551780545,0.31842304074927746,0.33581524711017596,0.37638601563073937,0.32634656721277605,0.3348743101229025,0.4470128548915085,0.4366768037497342,0.415251587926275,0.3971788915108439,0.5177707250862505,0.4725829666470551,0.4335838312714451,0.5295916633093845,0.6366729639979989,0.589237710559437,0.540599629947433,0.6830208711016998,0.7865680023724405,0.7864270832661321,0.7825166810924975,0.8705252192068045,0.8849450183425611,0.8593046285679211,0.9067615618666383,0.9587901121728919,1.0,0.8660867630589644,0.9999777930227177,0.9287626789116373,0.9431800979676295,0.9221523210451428,0.8282724262570973,0.6977017645042684,0.6801783931175372,0.5552819947884932,0.609633465286285,0.608505344590732,0.5422499240991902,0.44639649565807726,0.47591951768498886,0.4296414066506025,0.48810468988056177,0.46499856997354466,0.5710818229942848,0.509117650420128,0.664487512214604,0.6303218071532123,0.5385175559011983,0.5418739305608534,0.734591268801485,0.598193058261824,0.6189848499038829,0.6003823019723541,0.730984812493296,0.6747539770854356,0.639539944683211,0.6388666568120123,0.5816203692594839,0.6211703661683614,0.5681401336623468,0.5088559341282115,0.5737018670992037,0.5011179272587304,0.5564667495137773,0.4676579184261643,0.46482392315637494,0.4972721328713814,0.4163617500271119,0.49496768994524815,0.4468655809063285,0.43803439160777136,0.4477340931939319,0.330674144227572,0.35458303563387134,0.36541853679285335,0.3528938738253487,0.3971007797649245,0.268310613570833,0.2643313285060077,0.3770849771710555,0.35369442636368303],
        [0.6145940469705479,0.5390411048295684,0.3658337927378713,0.4782486247368606,0.3194161773392678,0.27969174072517605,0.229750679294233,0.37719144031123114,0.38727775523142427,0.24215264942551526,0.3238756782288682,0.24987294883369487,0.20921476312246792,0.28321030642102396,0.3325958594682281,0.2585333764775937,0.4281942842091358,0.3816397837663401,0.34920420720130113,0.45154776520704015,0.5209726719563368,0.4480091619250657,0.5558267780925812,0.5249225738987071,0.6681151749883325,0.6547002639907084,0.593586135065769,0.5485027614626844,0.7130973182248053,0.6409748077510307,0.6504939980661498,0.8493627561289289,0.8878693653826663,0.7537225762508339,0.7818392160483948,0.7722028962377707,0.8531173953506638,0.956912747664809,0.9353056696744881,0.9770384810927152,0.8513082102461128,0.9618035481909581,1.0,0.8554842156134252,0.929588729896819,0.847185705370515,0.7982637935894802,0.9155112468145038,0.7516455650687788,0.6692258750843695,0.7002267838476494,0.6866644938156738,0.7304795616932996,0.7572509684055805,0.7186059974093497,0.7378173526650715,0.6388147870240296,0.693618141049946,0.6105799755063757,0.566240471279289,0.6381791480775898,0.718622229674155,0.6370124351564646,0.7722483045556015,0.7658709257689155,0.6457454161914372,0.6820578985663319,0.7937500668700312,0.6726164198068668,0.6930557497811282,0.6946803517636643,0.7894126923748986,0.6185783564399362,0.6164157797353406,0.7118855844990493,0.6577715712366952,0.6915907388950068,0.5950347659784514,0.7148562073515808,0.6648002533693744,0.4985635590605513,0.6362728336898287,0.661363317232637,0.6419920516586581,0.585185040584192,0.4425260608859579,0.5295080267428993,0.4576182950583892,0.5966512328939619,0.534935634943425,0.5053660877015165,0.5175494233265711,0.45706304828936595,0.4383759810306975,0.555155165260862,0.4217786290110307],
        [0.4540619097369123,0.338375057582571,0.4346915343951561,0.2815459639178078,0.31997684933363024,0.2871568474414673,0.3412536766533101,0.3262411287963952,0.16355267384903624,0.1541622768780539,0.3148597935940527,0.3474569655475426,0.2770321564309111,0.33816373179552284,0.22980434360622162,0.2860010321603175,0.2976763957272386,0.42063486218011303,0.3645393584447999,0.36487397175110164,0.4451899362759074,0.5530389666224984,0.5606059766319617,0.5365871458462123,0.6698516996439037,0.5795570185455101,0.6026572379741572,0.6915025685294663,0.6995713453654843,0.7174549970129536,0.6804461241441191,0.7772685443503157,0.7483472640763472,0.7984576262406844,0.8916928726167642,0.9551614546071929,0.9408291522810072,0.882400437182127,0.9391164209397607,0.9858994480451763,0.9266580486506412,0.9211365420927197,0.873763404474774,0.9933119800101401,1.0,0.8669170356222683,0.9349459235901332,0.8632801720805366,0.8616581123686083,0.7439896593664879,0.7764506340049774,0.6697392715488011,0.5719921780999226,0.6452039926894482,0.6076014808531808,0.5542136910865026,0.6838069589504867,0.5775622322956971,0.511709837821516,0.5956569252852175,0.6213807550171349,0.73478205206238,0.7466245787052588,0.6478743174945925,0.8108190966244453,0.7148459370832739,0.7617498820409815,0.7305962340300324,0.7470084690416824,0.8946395242392212,0.9555516144914422,0.8675588633025979,0.9354399901279221,0.9095489952983253,0.8588250124808752,0.8944594649844356,0.8217888379896291,0.671401413920587,0.7378591366289269,0.6750358383963149,0.5714781028470363,0.46366554677357236,0.4551967832183611,0.5432509938023231,0.39634075564314963,0.5260565855587006,0.43795992344688595,0.3723277907309322,0.3763858425059055,0.3741325286357677,0.44383810220253334,0.27380179055305837,0.3026789358780693,0.4063752070316438,0.3256768077344528,0.4834507881639609],
        [0.46013444808816256,0.4935750015069584,0.31553284941195475,0.34413605327829294,0.506523193417039,0.4263819930348544,0.4114323735381395,0.45776353972280914,0.28838854040687995,0.2731557839626617,0.46049298746597406,0.4216459646509606,0.3952800023218087,0.2641292956979992,0.32335119565227516,0.41331071525374097,0.4092977211865304,0.21723294921437958,0.3735965752889886,0.22493655601278978,0.4372942328219496,0.33375760850879505,0.4669155301153709,0.362878744588793,0.37201193682943556,0.40413466209511106,0.5196715403563108,0.44139337817756924,0.6122954891334113,0.5901661528478702,0.7040700639808817,0.7434035413715092,0.6131471524783075,0.8082389843959186,0.6546910058939266,0.6844797399025123,0.9063529402756096,0.940353397864422,0.7987528474954028,0.8831272698176498,0.9120364955721508,1.0,0.9568610705415211,0.984035693740971,0.9116502293283812,0.9232917656649554,0.9109948528071462,0.8752136658798885,0.6826308508185374,0.6611722657917053,0.674488446953048,0.5731682121585738,0.605925595118633,0.5799166715466226,0.669018957037901,0.581261557104794,0.6013128146343719,0.6354175064215235,0.5449574980727105,0.4602092166624325,0.5296376685105079,0.6537606653176393,0.6895555920500316,0.595336275267258,0.6043996813330864,0.7562668640891818,0.6581749218062682,0.7397054315366584,0.6793974750472341,0.6550058234418797,0.747669366036019,0.8390380803295616,0.7738473623985663,0.6802057302158858,0.7636000552660266,0.7618275241417112,0.6457337285744109,0.668964059312104,0.6665204948779657,0.5299706597819246,0.6683168774395433,0.5352469352460946,0.6192154868464312,0.43141155216137383,0.46940802129963355,0.3817827557824518,0.32884160995034445,0.35630632326831263,0.3717818139158097,0.359662505136004,0.43685039451032714,0.368481225186984,0.31101435435691593,0.41043025063649596,0.3182661425965865,0.24353545566539456],
        [0.31753035733071855,0.2320870465601854,0.21766222231056423,0.1296564091221723,0.2549227195199756,0.1379773163640918,0.20078551113348625,0.0859284891931013,0.24275801026741817,0.12230024453937666,0.09536203359204011,0.16439033127110214,0.29879849276810444,0.18897414269991283,0.255021013535431,0.2577096725284992,0.25855747804317053,0.4045835968943219,0.4021198401502802,0.42136096932923467,0.40006824534189034,0.4815788645789334,0.43410280443933597,0.45846791532553616,0.4869282928210164,0.46026016607380865,0.6161393972810569,0.5111597449901782,0.5234725151078796,0.5569707107100914,0.6933306837339767,0.7103887409788442,0.6720322706861003,0.6210786344352038,0.8373541701619205,0.7063875704872209,0.8790681805827326,0.9008734458974443,0.9660307684087384,0.9665566840138237,0.9086343699521534,0.9098069187122191,0.9490058702306414,0.9146662928934106,1.0,0.9909929750805266,0.9137903837265123,0.7731110560473852,0.6867553289432563,0.7315890420721877,0.6496563704704892,0.5439929525874276,0.5294395717534843,0.5263035667563204,0.51763352808833,0.47052550899398676,0.557801013735583,0.3783810004152739,0.5028629613610297,0.5636312396212148,0.4508827422409807,0.4679882407350921,0.5986725734256799,0.5721054215310152,0.6975662750406945,0.647262891790089,0.7382401403766775,0.5861982797828359,0.6343533101986094,0.7529026890733789,0.7116736103376174,0.79660747919807,0.7140221379437605,0.7565863336427879,0.7086412217957831,0.5972499414635815,0.6837385819389858,0.6501272869654748,0.5039678442576515,0.5591893074114815,0.48711128914097607,0.4865303623857283,0.4590802140661191,0.38067997821453586,0.3771606649852131,0.3523399591723641,0.3640604505227158,0.4848887723467385,0.3197608828947825,0.3945047504089537,0.46276189823700997,0.32466472255415696,0.34664520231408136,0.44021886781890623,0.4210436270640399,0.3998469921456634],
        [0.393187700353712,0.4670091570387194,0.33201219552392564,0.3307579261491881,0.3950437385224945,0.3656732209372719,0.2968053406087486,0.2837745908611676,0.3560923885605942,0.41740758160259206,0.41739468609856367,0.4604717819287769,0.3354854095353944,0.34027784552986406,0.26065716417042695,0.4426477952717169,0.4094642313663151,0.44302765943871075,0.38745008863552266,0.49332010409056565,0.3138220032274017,0.3447122831409254,0.4143205238649184,0.3673161547461208,0.3844671048614292,0.5047859322576028,0.44896079679709744,0.557207222223542,0.6437199493911263,0.6441421732846369,0.5452906638171443,0.5367611134859751,0.7474107583673005,0.7846689834808338,0.681006729455268,0.7295015975999916,0.6932356480151192,0.8460602672571144,0.8160418702274137,0.9273677151322525,0.9055891185877494,0.8129925411883423,0.8909477447107048,1.0,0.9728106299660303,0.9494392379072475,0.9379035142297412,0.8968379644431925,0.8734145430766991,0.8353888560268642,0.782777071323382,0.7983821907372767,0.6866665605311851,0.6859931707386873,0.6526635422535025,0.5997469509337573,0.6177918425620041,0.560420788413072,0.6237389720667337,0.6488849820620208,0.6023312010621006,0.6520200277890765,0.684906253866042,0.7093782266729037,0.7657230656454367,0.7511744211390377,0.9036476916244104,0.8435256255709855,0.8138479358394959,0.9248320812968908,0.8376514528483575,0.8025138790593682,0.8037783787952374,0.824458962827659,0.837916721121595,0.7738549533948752,0.579849340306158,0.6883959239196002,0.531381165380111,0.5495673391042675,0.36247731014038403,0.3999720249738461,0.2890244254384265,0.43651850298518413,0.28626206267289206,0.3813415745315508,0.29281451738083064,0.26387892437520605,0.4393692527451298,0.37647337316227736,0.4510408220124074,0.3392442619561792,0.465226469983251,0.5034189878352247,0.40022335379225865,0.521373183160397],
        [0.5110392764365148,0.4741879943556881,0.3043382239367767,0.28754811940943636,0.32656721019307894,0.25239247237916046,0.28756201452576474,0.24917331980711,0.307079067768937,0.3238273139486079,0.33282818497733163,0.2851183357760573,0.29789450828590763,0.27693949453511324,0.2004407437340139,0.2820032211301127,0.2514206945812967,0.35912844581938824,0.4761738274979893,0.4443873298691797,0.48705812253591885,0.402129932018523,0.4429181783795986,0.44447137220844923,0.62050776424693,0.5171218183234346,0.6030825613467002,0.5306925348831092,0.5487480724378785,0.6205697568005546,0.6379773952118846,0.6586295883978124,0.7404757293689002,0.6969129663032952,0.8188518445704146,0.6864955554277503,0.7588776869514274,0.855744897623063,0.859555016218745,0.7682554569776169,0.8554788118027902,0.8389757458029352,0.9210614249961644,0.8141018870025263,0.9370556040546615,0.8872747486087229,0.8368482430136986,0.930714302386779,0.7886706558452573,0.760617900568792,0.7064262510275897,0.869967086229345,0.757772651175591,0.7317414872583456,0.6093731994373447,0.5771005131352397,0.6004420733793766,0.6191725564576247,0.6454825679191956,0.5940087801235533,0.6733965561980729,0.588168933940014,0.5368281770278748,0.6612406475777983,0.6249106466452009,0.7213424258584527,0.9138588250528922,0.9265451588729812,0.8238199105249252,0.8848276376657749,0.9172882006852675,1.0,0.8292631964480431,0.8076991137808887,0.788944850083942,0.8571608646230282,0.7556513147712982,0.7963474902332849,0.6125266652027089,0.6051303294066087,0.607328733342483,0.5338075567716373,0.45426617556260784,0.39688386930195096,0.47009827328340525,0.3718583264093669,0.5462563128400142,0.45457957029676604,0.37216338219408035,0.49464116123168217,0.354890117346459,0.50168350795063,0.42428357809171197,0.33987447150755706,0.30101023957616235,0.49123153040067624],
        [0.3868365914353704,0.28506740097123473,0.4150489750825299,0.33987474526706296,0.272852479378761,0.3687179729854921,0.29793789209311045,0.33313167073416133,0.31488313948038965,0.3769248824446132,0.3388257766494595,0.27991781363443674,0.3045264638308074,0.36275514474573956,0.4228761663978734,0.2832488785791072,0.40500410986943297,0.32135052036259104,0.4244856360214294,0.4811635588036468,0.38127705137350376,0.4478426052696079,0.5182473260545347,0.4252035168758227,0.4418957179120254,0.6058558859243761,0.5898889774726925,0.6225370611468177,0.6685345963015021,0.6379473998450021,0.6558788349743336,0.6968864200917534,0.7559778153258856,0.7239622984052769,0.6980382061992055,0.7356527236198572,0.9235665723981277,0.7799887591986069,0.9321841871715102,1.0,0.8650615957168813,0.9871146922756153,0.9088035152464637,0.8853890067912167,0.9763940236455567,0.947491261518878,0.7902651643733378,0.7845959754757201,0.6351438682925994,0.6868730892660045,0.6439422033250447,0.4854372584357516,0.5070390404978861,0.5220648816276824,0.34646401099140395,0.5026234836332517,0.4571331759649691,0.44329823512766625,0.4858854718655037,0.5692022517879005,0.579268687602287,0.5679831637644572,0.5957959038652363,0.7029697617808985,0.6058182513340701,0.6062975080745869,0.7392771134312169,0.7633679099052906,0.7534530759274589,0.7060321728917118,0.7165587868293822,0.7745767543401968,0.700052962667121,0.7251613501470143,0.6694713420966536,0.6737494759931677,0.587972715056759,0.5470914140437659,0.6123479046677708,0.5121512286799778,0.45109006483794256,0.5402377852824108,0.42933072478927464,0.35392127929891626,0.44676361224413347,0.35039348285763566,0.3907038878499774,0.3905023001830034,0.44493639119588324,0.29202682186739526,0.3030683960974021,0.4195196036046404,0.37447770150529547,0.3194788322415275,0.3688982141260016,0.30394776794156186],
        [0.30800328835563723,0.428654975350308,0.4512352974305542,0.3454886772555456,0.21521623278607463,0.19815840200782023,0.24111567751466625,0.2480037810170914,0.16389096610232015,0.34211250863895504,0.2649600002367789,0.38271042739961514,0.3670448430292232,0.29593794657585787,0.33570238223884574,0.2840494520353134,0.2984780793856806,0.28007886174831786,0.3885248388546701,0.3109768708472617,0.4111370970643509,0.4077225405864504,0.5316392879599383,0.46916171527585965,0.6052148512857798,0.4791971686598028,0.663106526107883,0.6174807516198497,0.5430311966973554,0.650749669563525,0.6270696354658966,0.7555891176128972,0.7604344666777193,0.660245120078577,0.7605100659635723,0.8845625714817078,0.8056465340018361,0.8993510295906332,0.7851960714871492,0.9627506322368697,0.8978151429987304,1.0,0.9134045702008418,0.9559956956184132,0.9836375696002198,0.9069514484743668,0.8417059966772551,0.7581211062171128,0.6464582895351917,0.6851143584790249,0.6365374400114988,0.6818754587277993,0.5088402589097208,0.5946157026415297,0.4184766799003184,0.5797367273807273,0.5199668099163124,0.4608648750297327,0.4271377583199922,0.4161392207571704,0.5145562924099358,0.4965755172309583,0.5922565060269234,0.6559723539822728,0.5573057865033366,0.6657355003215185,0.6503486131686632,0.601147664280207,0.7523580392092667,0.723994975066889,0.6694630338763019,0.7806482573811345,0.7051390679965115,0.8162450844050737,0.7833211701598993,0.7596045679653463,0.8287530163601161,0.78830261600475,0.7210136908053828,0.6579118476841668,0.55352401803131,0.46638238068848803,0.45564469239416244,0.465042410163235,0.40700130607072643,0.4569859796854718,0.42264000513019984,0.36802258958724193,0.4355603316815033,0.405009465407791,0.38475503147984713,0.33950469434783787,0.24162778484644934,0.3298228613986681,0.35802364966429334,0.36742934153121987],
...